/*--------------------------------*- C++ -*----------------------------------*\
| =========                 |                                                 |
| \\      /  F ield         | OpenFOAM: The Open Source CFD Toolbox           |
|  \\    /   O peration     | Version:  4.0                                   |
|   \\  /    A nd           | Web:      www.OpenFOAM.org                      |
|    \\/     M anipulation  |                                                 |
\*---------------------------------------------------------------------------*/
FoamFile
{
    version     2.0;
    format      ascii;
    class       dictionary;
    location    "constant";
    object      transportProperties;
}
// * * * * * * * * * * * * * * * * * * * * * * * * * * * * * * * * * * * * * //

phases (water air);

water
{
    transportModel  Newtonian;
    nu              [ 0 2 -1 0 0 0 0 ] 0.0608;
    rho             [ 1 -3 0 0 0 0 0 ] 1000;
}

air
{
    transportModel  Newtonian;
    nu              [ 0 2 -1 0 0 0 0 ] 0.0608;
    rho             [ 1 -3 0 0 0 0 0 ] 1;
}

sigma           [ 1 0 -2 0 0 0 0 ] 1111;


/* kva_interfaceProperties  *\
curvatureModel      vofsmooth; // normal; // If absent default: normal
vofsmoothCoeffs
{
    numSmoothingIterations 2; // If absent default: 2
}
\* kva_interfaceProperties */



// ************************************************************************* //
